13
Coordinates from ORCA-job HfCO6-2
  Hf  -0.43742388452801      0.82114384832715     -0.00325263047048
  C   1.78936923988881      0.75371179855729     -0.20636200140966
  C   -0.36919751131310      3.05732659092096     -0.00003488741902
  C   -2.66420810200560      0.88909099958001      0.19986773738276
  C   -0.50521641784970     -1.41505051388484     -0.00655758163118
  O   -0.33258937663682      4.23542543873130      0.00163651800845
  O   2.96270729499869      0.71800843426937     -0.31253147190901
  O   -0.54115765796472     -2.59316960022096     -0.00837820154173
  O   -3.83753114147079      0.92523747001175      0.30604468028797
  C   -0.64156563449325      0.83028556519639     -2.23124193381794
  C   -0.23341006496231      0.81148790948415      2.22475200075053
  O   -0.74914106601211      0.83506551626561     -3.40498600728907
  O   -0.12593567765109      0.80626654276181      3.39850377905837
