12
Coordinates from ORCA-job MoCO5F-
  Mo  -1.31352624052911      0.80400654352473     -0.05586536648217
  C   -1.30044009418705      2.86804403642511      0.04377274422755
  C   -3.37486395715327      0.81278057632867     -0.12529492654139
  C   0.75133156192364      0.77208954372513     -0.02134695327280
  C   -1.33779660771699     -1.25422495975678     -0.18064605475009
  O   -1.29332046943063      4.02212083705048      0.04578510786499
  O   1.90487291892374      0.75380523714708     -0.06348696648324
  O   -1.35562635064200     -2.40459882881560     -0.28356585028214
  O   -4.52758243378731      0.80981143236875     -0.19580264400579
  C   -1.25972441390257      0.91126455984388     -2.03077337552004
  O   -1.22564594408634      0.98408618363026     -3.19945627827213
  F   -1.34851796941211      0.73653483852829      2.05717056351725
