13
Coordinates from ORCA-job WCO6
  W   -1.37635160133426      2.56719448545007      0.10709686933058
  C   0.70272999681833      2.53179774631714      0.31011114618331
  C   -1.33775239863973      4.65580433080059      0.07347446212731
  C   -3.45543723100237      2.60257333866440     -0.09594704306543
  C   -1.41507943095168      0.47858591004931      0.14081548318611
  C   -1.57903514921621      2.60467868354529      2.18615971616257
  C   -1.17340292467731      2.52974208607264     -1.97194719057902
  O   -1.69019729831685      2.62554721662303      3.32641109388980
  O   -1.43629502903751     -0.66691162496567      0.15940043369123
  O   -1.31658113423383      5.80130794032201      0.05519070779688
  O   -1.06184549919914      2.50893050109233     -3.11216066718206
  O   -4.59572770137221      2.62223297739980     -0.20692570025440
  O   1.84302540116278      2.51211640862904      0.42104068871313
