13
Coordinates from ORCA-job HfCO6-2
  Hf  -0.43734326848992      0.82113934641045     -0.00326836014557
  C   1.78622775555453      0.75402634668437     -0.20553848632820
  C   -0.36886810419067      3.05418281147325      0.00011458153741
  C   -2.66089530230452      0.88869566549065      0.19900209139059
  C   -0.50566555407357     -1.41190927197169     -0.00666852118857
  O   -0.33272370377140      4.22676783884599      0.00189265206715
  O   2.95403871347856      0.71874237802178     -0.31138987694695
  O   -0.54158478074039     -2.58450095621093     -0.00850425754155
  O   -3.82869258790820      0.92437696928617      0.30485558706146
  C   -0.64123429914387      0.83016434259926     -2.22807183876392
  C   -0.23359990050875      0.81168348147072      2.22154897264258
  O   -0.74899858765514      0.83485363298556     -3.39623741478919
  O   -0.12596038024668      0.80660741491442      3.38972487100474
