13
Coordinates from ORCA-job HfCO6+
  Hf  -0.43729535522733      0.82113979981744     -0.00328050874020
  C   1.88319329324049      0.75122559839614     -0.21428212334645
  C   -0.36541894228342      3.15164806297739      0.00026404626096
  C   -2.75776481577386      0.89132476827630      0.20771478634545
  C   -0.50918000707931     -1.50936952900705     -0.00680197192845
  O   -0.33101700322401      4.27816069196970      0.00199392740054
  O   3.00514769355663      0.71761785851538     -0.31567260005921
  O   -0.54379046270651     -2.63587568932797     -0.00847074478264
  O   -3.87971070491850      0.92521976023775      0.30910145737410
  C   -0.65041647028931      0.83066578922826     -2.32513137078763
  C   -0.22427413909298      0.81134506065029      2.31857478875011
  O   -0.75379239592454      0.83518691558367     -3.44739830711169
  O   -0.12098069027733      0.80654091268270      3.44084862062511
