12
Coordinates from ORCA-job MoCO5F-
  Mo  -1.31243761116219      0.80605300306875     -0.01185022521826
  C   -1.29910371859653      2.86788338121614      0.04795280429048
  C   -3.37051062053450      0.81609603528544     -0.11716221894018
  C   0.74879603312957      0.77399578602614     -0.01894605225863
  C   -1.33496387762727     -1.24820265515046     -0.17217884103248
  O   -1.29585871576855      4.01622939909211      0.00945753790488
  O   1.89489969626494      0.75054668295997     -0.10181689827292
  O   -1.34850782817052     -2.38459987992995     -0.34773032937147
  O   -4.51147851982738      0.81612326508138     -0.25911850724468
  C   -1.26839471681379      0.90236764397691     -1.98549555043365
  O   -1.24091290761615      0.96063465955575     -3.15017635220808
  F   -1.34236721327761      0.73859267881779      2.09755463278500
