13
Coordinates from ORCA-job MoCO5CN
  Mo  -0.53581750476413      1.02503490152498      0.06462990575023
  C   -0.65922181009871      3.07651053643992     -0.04731791436596
  C   -2.57859006433847      0.89358372477670     -0.14573269276537
  C   1.51313181989853      1.15527139921671      0.20978103527205
  C   -0.40481684687780     -1.02910453534058      0.09941519723930
  O   -0.72854297402590      4.22096349068779     -0.09273189895976
  O   2.65422442068801      1.22724419078860      0.30676398016567
  O   -0.33422590800124     -2.17387611333663      0.13330344123477
  O   -3.71959052137891      0.82191786825332     -0.24397046894064
  C   -0.34095739600182      0.95809337317513     -2.15664597845946
  C   -0.71441581117818      1.08524676967913      2.06526177516464
  O   -0.81671506253666      1.11953256560801      3.21881859355173
  N   -0.24159234138473      0.92327182852692     -3.31372497488720
