12
Coordinates from ORCA-job MoCO5Cl
  Mo  1.30763705431843      1.78633590432366     -0.13158686908583
  C   3.36043832422982      1.81590184166794      0.04429907253344
  C   1.32397082124997      3.79786092344981     -0.58138898231629
  C   -0.74644723580939      1.77087465695051     -0.27852582151315
  C   1.29466753910158     -0.21693955603696      0.35518086704653
  O   1.33691199993926      4.90901540215789     -0.86677574680390
  O   4.50591058788333      1.82547789789106      0.10911095571015
  O   1.29060116028398     -1.33833408840264      0.59716240439479
  O   -1.88793743030013      1.75530175281540     -0.39355845194142
  C   1.45547335490126      1.33857267696888     -2.04062805234474
  O   1.54280647729863      1.07200439054388     -3.17012874352938
  Cl  1.10185734690326      2.37164819767055      2.41151936784980
