13
Coordinates from ORCA-job MoCO5NO+
  Mo  -1.32806598123662      0.22124452578940     -0.13621784726865
  C   -1.21210572618753      2.30791607168643      0.22538784599958
  C   0.76466047631889      0.05747078769281      0.15022723347657
  C   -1.45328308644623     -1.87857041333154     -0.39802431245522
  C   -3.43420446309044      0.37134126492448     -0.32244661335750
  O   -1.14762036068012      3.41745377489989      0.40879730035476
  O   1.87862028841438     -0.02896405315723      0.29383213907680
  O   -1.51699585569619     -2.99351716377258     -0.54563602863127
  O   -4.55261809757353      0.45174878060311     -0.42979022508018
  C   -1.59451149284012     -0.09460197391682      2.03715271902869
  N   -1.10227119209729      0.47955929380653     -1.95870868475710
  O   -1.72925618671984     -0.25735090434258      3.13772974225301
  O   -0.96269832216535      0.63707000911811     -3.07695326863949
