13
Coordinates from ORCA-job MoCO5NO-
  O   -1.17106664454300      3.39684859946454      0.65676412661302
  O   -4.46670500226529      0.54225302070461     -0.66128018786962
  C   -1.22795593391523      2.27904012274377      0.38896724604955
  C   -3.34733805969545      0.43891378546015     -0.40754193678220
  Mo  -1.34238476638168      0.26116032649502     -0.00653910861603
  C   -1.58394089468701     -0.08595129162518      1.95136986469184
  O   -1.72898022026827     -0.31548024178813      3.07892097498209
  N   -1.06601979078071      0.74702412100118     -2.23565112718268
  C   0.70494564466402      0.10681791149818      0.03846889869324
  C   -1.46519057484794     -1.75418056757176     -0.37953962326994
  O   1.85389125781002      0.01797631442361      0.03634538690836
  O   -1.54117118065658     -2.88780557390721     -0.55352753916701
  O   -1.06888383443288     -0.12351652689877     -3.07043697505061
