13
Coordinates from ORCA-job MoCO5NO
  O   -1.15854448567606      3.41798051783377      0.48630123424528
  O   -4.54213606477538      0.48825648483927     -0.35407888286270
  C   -1.22039534631316      2.30787029831645      0.24045299844509
  C   -3.40955101693936      0.41039858339914     -0.28541335313213
  Mo  -1.33820797239689      0.25967724814656     -0.12271461085896
  C   -1.56919519788798     -0.07998711774701      1.87922280358976
  O   -1.69886854009958     -0.31071295450060      2.99097868904469
  N   -1.10508854935320      0.55525883846580     -2.15020079021134
  C   0.71853176622630      0.09149645470860      0.14373385983892
  C   -1.45249825257865     -1.78383596667616     -0.44997510126567
  O   1.83938015866567     -0.00685771212937      0.31047417694532
  O   -1.51721448927149     -2.91048314338416     -0.60309636508558
  O   -0.99701200960021      0.18403846872771     -3.24936465869268
