13
Coordinates from ORCA-job OsCO6
  Os  -0.50226658416045     -0.08891533016452      0.08539515021922
  C   0.92288826558557      1.25857175494777      0.22205255883462
  C   -0.02256240652921      6.07091657645793      0.22419525351729
  C   -2.36811371782098      0.52284476623251      0.18531932733931
  C   -0.08876762872362     -1.99746004336733     -0.17257005878627
  O   0.55352113181630      6.61050720528760     -0.57795792817893
  O   1.73510231036460      2.05995463334474      0.29637845697926
  O   0.13797952993557     -3.10303254008408     -0.35325731272856
  O   -3.44844293240357      0.89576700438869      0.21636290898216
  C   -0.50304727458834      0.17068318184014     -1.87878003198596
  C   -0.45259055809196     -0.33821189764095      2.05023636947787
  O   -0.42692874944999      0.32337291290701     -3.00212898120366
  O   -0.41458138593391     -0.44630822414953      3.18086428753366
