13
Coordinates from ORCA-job TaCO6-
  Ta  0.27389000000000      0.93013000000000      0.02870000000000
  C   2.48952000000000      0.92813000000000      0.05974000000000
  C   0.27413000000000      3.14227000000000      0.15631000000000
  C   -1.94181000000000      0.93257000000000     -0.00228000000000
  C   0.27335000000000     -1.28214000000000     -0.09889000000000
  O   0.27421000000000      4.26850000000000      0.22072000000000
  O   3.61744000000000      0.92722000000000      0.07540000000000
  O   -3.06965000000000      0.93392000000000     -0.01792000000000
  O   0.27303000000000     -2.40821000000000     -0.16332000000000
  C   0.30585000000000      1.06042000000000     -2.18307000000000
  C   0.24221000000000      0.79935000000000      2.24054000000000
  O   0.32231000000000      1.12721000000000     -3.30901000000000
  O   0.22601000000000      0.73218000000000      3.36636000000000
