13
Coordinates from ORCA-job TaCO6
  Ta  0.27388187427258      0.93009758565297      0.02871277468045
  C   2.44115925046714      0.84451112094844     -0.03520928137582
  C   0.18705301042115      3.09794335972709      0.05622149681750
  C   -1.89338803584333      1.01576443590455      0.09266675926158
  C   0.36067068660269     -1.23775023636511      0.00117286639172
  O   0.13700264847949      4.23750168670792      0.05582922814194
  O   3.57974844947516      0.79554942621231     -0.08101851459913
  O   -3.03197070392206      1.06486481893407      0.13851350356871
  O   0.41066028760017     -2.37731253083557      0.00153406987742
  C   0.39684780344568      1.15341318108732     -2.12482331413328
  C   0.15095604370487      0.70677763416486      2.18224930132376
  O   0.46658898287644      1.28510189868051     -3.25571628442417
  O   0.08127970242003      0.57508761918064      3.31314739446933
