13
Coordinates from ORCA-job WCO6-
  W   -1.37589187842578      2.56726023345796      0.10769977878310
  C   0.69925901052103      2.49287044863031      0.21827316484696
  C   -1.38242693932165      4.63896750662163      0.10963430640653
  C   -3.45146311772721      2.64289630006885     -0.00169037636136
  C   -1.37207941765862      0.49552889573780      0.10251257595772
  C   -1.66869864730587      2.64468098428806      2.16547969337348
  C   -1.08167466937388      2.48837781619350     -1.95028296951773
  O   -1.92789531518317      2.73567599627101      3.29212995677046
  O   -1.32837718077699     -0.66206556538237      0.06164619572316
  O   -1.43055758755874      5.79657927788960      0.14475125201149
  O   -0.82010244107236      2.39541608514386     -3.07627126310977
  O   -4.60695753434900      2.73282750885688      0.03729518147130
  O   1.85491571823225      2.40458451222288      0.18154250364467
