13
Coordinates from ORCA-job WCO6_anion
  W   -1.37592055856328      2.56722568090131      0.10772186455186
  C   0.70339849705940      2.47709483083033      0.25865923998312
  C   -1.39629430255935      4.65417778893938      0.12332104868923
  C   -3.45487307280734      2.65782525413489     -0.04446929855469
  C   -1.35582885345548      0.48021858039463      0.09154772662339
  C   -1.62950939389616      2.66067531684478      2.17691875680203
  C   -1.12348113033486      2.47322147733888     -1.96131096812726
  O   -1.82587320278323      2.77375820534902      3.31856626571427
  O   -1.28011078656529     -0.67937539566111      0.02753403378319
  O   -1.47275870129752      5.81380733521210      0.18576491740835
  O   -0.92935356168577      2.35939772966684     -3.10326203344581
  O   -4.61311411577274      2.76871377569925     -0.07533287889430
  O   1.86176918266163      2.36685942034965      0.28706132546663
