13
Coordinates from ORCA-job ReCO6
  Re  -0.33697162047010      0.33243945133138      0.02524821337390
  C   1.72603077034794      0.29894389185895      0.03725895153813
  C   -0.30375477951612      2.39443058696601      0.09074100774037
  C   -2.39997665870816      0.36599091165322      0.01320017334831
  C   -0.37020544735838     -1.72955146113603     -0.04025497302257
  O   -0.28532846198632      3.52627696408367      0.12687211890986
  O   2.85843347328441      0.28043909785492      0.04379254833089
  O   -0.38866651932904     -2.86139619249936     -0.07641182563756
  O   -3.53237753379117      0.38451785124973      0.00652877466493
  C   -0.32379904077409      0.39810920309636     -2.03697014015473
  C   -0.35011483338974      0.26666201068046      2.08746606497109
  O   -0.31639977922472      0.43493972090378     -3.16891984537437
  O   -0.35743956908451      0.22961796395692      3.21940893131174
